Circuit: * C:\Users\matth\Desktop\AeroNU\FixedWing\BMS\bms-pcb-design\sims\RailLeakage\PMOSLeakage.asc

Direct Newton iteration for .op point succeeded.
Semiconductor Device Operating Points:
                        --- Diodes ---
Name:      d1
Model:      d
Id:      1.82e-08
Vd:      3.73e-01
Req:     1.42e+06
CAP:     0.00e+00



Date: Wed Sep 24 14:50:48 2025
Total elapsed time: 0.135 seconds.

tnom = 27
temp = 27
method = trap
totiter = 18
traniter = 0
tranpoints = 0
accept = 0
rejected = 0
matrix size = 37
fillins = 58
solver = Normal
Avg thread counts: 16.0/0.0/16.0/16.0
Matrix Compiler1: 5.13 KB object code size
Matrix Compiler2: 4.07 KB object code size
