Circuit: * C:\Users\matth\Desktop\AeroNU\FixedWing\BMS\bms-pcb-design\sims\CellBalancingBJT\CellBalancingCircuit.asc

Warning: Multiple definitions of model "2scr375p" Type: BJT
Warning: Multiple definitions of model "bc857b" Type: BJT
Warning: Multiple definitions of model "bc847c" Type: BJT
Warning: Multiple definitions of model "bc847b" Type: BJT
WARNING: Less than two connections to node nc_01.  This node is used by r4.
WARNING: Less than two connections to node n002.  This node is used by r5.

Date: Sat Dec 28 19:07:46 2024
Total elapsed time: 0.061 seconds.

tnom = 27
temp = 27
method = trap
totiter = 255
traniter = 0
tranpoints = 0
accept = 0
rejected = 0
matrix size = 10
fillins = 0
solver = Normal
Avg thread counts: 14.9/0.0/16.0/14.9
Matrix Compiler1:      30 opcodes  0.1/[0.1]/0.1
Matrix Compiler2: 760 bytes object code size  0.1/0.1/[0.1]

