Circuit: * C:\Users\matth\Desktop\AeroNU\FixedWing\BMS\bms-pcb-design\sims\CellBalancingBJT\CellBalancingCircuit.asc

Warning: Multiple definitions of model "2scr375p" Type: BJT
Warning: Multiple definitions of model "bc857b" Type: BJT
Warning: Multiple definitions of model "bc847c" Type: BJT
Warning: Multiple definitions of model "bc847b" Type: BJT
WARNING: Less than two connections to node nc_01.  This node is used by r4.

Date: Sun Dec 29 15:21:19 2024
Total elapsed time: 0.059 seconds.

tnom = 27
temp = 27
method = trap
totiter = 258
traniter = 0
tranpoints = 0
accept = 0
rejected = 0
matrix size = 11
fillins = 0
solver = Normal
Avg thread counts: 14.8/0.0/16.0/14.8
Matrix Compiler1:      37 opcodes  0.2/[0.1]/0.1
Matrix Compiler2: 895 bytes object code size  0.1/0.1/[0.1]

