Circuit: * C:\Users\matth\Desktop\AeroNU\FixedWing\BMS\bms-pcb-design\sims\BalanceLeakage\BalanceLeakage.asc

Warning: Multiple definitions of model "2scr375p" Type: BJT
Warning: Multiple definitions of model "bc857b" Type: BJT
Warning: Multiple definitions of model "bc847c" Type: BJT
Warning: Multiple definitions of model "bc847b" Type: BJT

Date: Mon Mar 16 23:35:07 2026
Total elapsed time: 0.036 seconds.

tnom = 27
temp = 27
method = trap
totiter = 108
traniter = 0
tranpoints = 0
accept = 0
rejected = 0
matrix size = 23
fillins = 6
solver = Normal
Avg thread counts: 16.0/0.0/16.0/16.0
Matrix Compiler1: 1.86 KB object code size  0.3/0.2/[0.2]
Matrix Compiler2: 2.01 KB object code size  0.2/0.2/[0.1]

